Circuit: * C:\Users\Nobel Chowdary\Desktop\IC Lab\EXP7\active low pass filter.asc

Direct Newton iteration for .op point succeeded.

Date: Sun Feb 21 19:04:29 2021
Total elapsed time: 0.163 seconds.

tnom = 27
temp = 27
method = trap
totiter = 4
traniter = 0
tranpoints = 0
accept = 0
rejected = 0
matrix size = 10
fillins = 1
solver = Normal
Matrix Compiler1:      24 opcodes
Matrix Compiler2: 862 bytes object code size
