Circuit: * C:\Users\Nobel Chowdary\Desktop\IC Lab\EXP1\differential amp.asc

Direct Newton iteration for .op point succeeded.

Date: Sun Feb 21 18:57:01 2021
Total elapsed time: 0.192 seconds.

tnom = 27
temp = 27
method = modified trap
totiter = 2089
traniter = 2082
tranpoints = 1042
accept = 1042
rejected = 0
matrix size = 12
fillins = 1
solver = Normal
Matrix Compiler1: 482 bytes object code size  0.4/0.2/[0.1]
Matrix Compiler2: 982 bytes object code size  0.3/0.4/[0.2]

