Circuit: * C:\Users\Nobel Chowdary\Desktop\IC Lab\EXP1\inverting amplifier.asc

Direct Newton iteration for .op point succeeded.

Date: Sun Feb 21 19:09:08 2021
Total elapsed time: 0.230 seconds.

tnom = 27
temp = 27
method = modified trap
totiter = 2089
traniter = 2082
tranpoints = 1042
accept = 1042
rejected = 0
matrix size = 10
fillins = 2
solver = Normal
Matrix Compiler1: 476 bytes object code size  0.5/0.3/[0.2]
Matrix Compiler2: 864 bytes object code size  0.3/0.4/[0.3]

