Circuit: * C:\Users\Nobel Chowdary\Desktop\IC Lab\EXP1\non inverting amp.asc

Direct Newton iteration for .op point succeeded.

Date: Sun Feb 21 18:56:25 2021
Total elapsed time: 0.236 seconds.

tnom = 27
temp = 27
method = modified trap
totiter = 2089
traniter = 2082
tranpoints = 1042
accept = 1042
rejected = 0
matrix size = 9
fillins = 1
solver = Normal
Matrix Compiler1: 404 bytes object code size  0.4/0.3/[0.2]
Matrix Compiler2: 777 bytes object code size  0.3/0.4/[0.3]

