Circuit: * C:\Users\Nobel Chowdary\Desktop\IC Lab\EXP1\unity gain amp.asc

Direct Newton iteration for .op point succeeded.

Date: Sun Feb 21 18:57:54 2021
Total elapsed time: 0.159 seconds.

tnom = 27
temp = 27
method = modified trap
totiter = 2089
traniter = 2082
tranpoints = 1042
accept = 1042
rejected = 0
matrix size = 8
fillins = 0
solver = Normal
Matrix Compiler1: 300 bytes object code size  0.3/0.2/[0.1]
Matrix Compiler2: 616 bytes object code size  0.2/0.3/[0.2]

