Circuit: * C:\Users\Nobel Chowdary\Desktop\IC Lab\EXP2\Adder.asc

Direct Newton iteration for .op point succeeded.

Date: Sun Feb 21 18:58:14 2021
Total elapsed time: 0.193 seconds.

tnom = 27
temp = 27
method = modified trap
totiter = 2089
traniter = 2082
tranpoints = 1042
accept = 1042
rejected = 0
matrix size = 12
fillins = 2
solver = Normal
Matrix Compiler1: 522 bytes object code size  0.2/0.1/[0.1]
Matrix Compiler2: 996 bytes object code size  0.1/0.3/[0.1]

