Circuit: * C:\Users\Nobel Chowdary\Desktop\IC Lab\EXP8\RC phase shift oscillator (1).asc

Direct Newton iteration failed to find .op point.  (Use ".option noopiter" to skip.)
Starting Gmin stepping
Gmin = 10
Gmin = 1.07374
vernier = 0.5
vernier = 0.25
vernier = 0.125
vernier = 0.0625
Gmin = 1.08884
vernier = 0.03125
vernier = 0.015625
Gmin = 1.03922
vernier = 0.0078125
vernier = 0.00390625
Gmin = 1.02313
vernier = 0.00520833
vernier = 0.00260417
Gmin = 1.01616
vernier = 0.00347222
vernier = 0.00173611
vernier = 0.00231481
Gmin = 1.01205
vernier = 0.00115741
vernier = 0.00154321
vernier = 0.000771604
Gmin = 1.0104
vernier = 0.00102881
Gmin = 1.00812
vernier = 0.000514403
vernier = 0.00068587
Gmin = 1.00704
vernier = 0.000514403
vernier = 0.00068587
vernier = 0.000514402
Gmin = 1.00622
Gmin = 0
Gmin stepping failed

Starting source stepping with srcstepmethod=0
Source Step = 3.0303%
Source Step = 33.3333%
Source Step = 63.6364%
Source Step = 93.9394%
Source stepping succeeded in finding the operating point.


Date: Tue Jul 06 21:21:26 2021
Total elapsed time: 0.718 seconds.

tnom = 27
temp = 27
method = modified trap
totiter = 48387
traniter = 41600
tranpoints = 12559
accept = 8848
rejected = 3711
matrix size = 14
fillins = 10
solver = Normal
Matrix Compiler1: 1.03 KB object code size  0.6/0.4/[0.3]
Matrix Compiler2: 1.36 KB object code size  0.2/0.3/[0.2]

